functions/OneTimeScripts/validationAgainstOpenDSS_MATLAB/ieee123_1ph_generated/components/Generator.dss
New "Generator.3" phases=1 bus1=3.1 kv=2.4018 model=1 kW=4.6655 kvar=3.0947
New "Generator.4" phases=1 bus1=4.1 kv=2.4018 model=1 kW=2.3335 kvar=1.5478
New "Generator.6" phases=1 bus1=6.1 kv=2.4018 model=1 kW=4.6655 kvar=3.0947
New "Generator.7" phases=1 bus1=7.1 kv=2.4018 model=1 kW=2.3335 kvar=1.5478
New "Generator.8" phases=1 bus1=8.1 kv=2.4018 model=1 kW=4.6655 kvar=3.0947
New "Generator.9" phases=1 bus1=9.1 kv=2.4018 model=1 kW=2.3335 kvar=1.5478
New "Generator.11" phases=1 bus1=11.1 kv=2.4018 model=1 kW=4.6655 kvar=3.0947
New "Generator.12" phases=1 bus1=12.1 kv=2.4018 model=1 kW=2.3335 kvar=1.5478
New "Generator.13" phases=1 bus1=13.1 kv=2.4018 model=1 kW=4.6655 kvar=3.0947
New "Generator.14" phases=1 bus1=14.1 kv=2.4018 model=1 kW=2.3335 kvar=1.5478
New "Generator.18" phases=1 bus1=18.1 kv=2.4018 model=1 kW=4.6655 kvar=3.0947
New "Generator.19" phases=1 bus1=19.1 kv=2.4018 model=1 kW=2.3335 kvar=1.5478
New "Generator.21" phases=1 bus1=21.1 kv=2.4018 model=1 kW=4.6655 kvar=3.0947
New "Generator.22" phases=1 bus1=22.1 kv=2.4018 model=1 kW=4.6655 kvar=3.0947
New "Generator.24" phases=1 bus1=24.1 kv=2.4018 model=1 kW=4.6655 kvar=3.0947
New "Generator.26" phases=1 bus1=26.1 kv=2.4018 model=1 kW=4.6655 kvar=3.0947
New "Generator.30" phases=1 bus1=30.1 kv=2.4018 model=1 kW=4.6655 kvar=3.0947
New "Generator.31" phases=1 bus1=31.1 kv=2.4018 model=1 kW=4.6655 kvar=3.0947
New "Generator.32" phases=1 bus1=32.1 kv=2.4018 model=1 kW=4.6655 kvar=3.0947
New "Generator.33" phases=1 bus1=33.1 kv=2.4018 model=1 kW=2.3335 kvar=1.5478
New "Generator.34" phases=1 bus1=34.1 kv=2.4018 model=1 kW=2.3335 kvar=1.5478
New "Generator.35" phases=1 bus1=35.1 kv=2.4018 model=1 kW=4.6655 kvar=3.0947
New "Generator.36" phases=1 bus1=36.1 kv=2.4018 model=1 kW=4.6655 kvar=3.0947
New "Generator.37" phases=1 bus1=37.1 kv=2.4018 model=1 kW=4.6655 kvar=3.0947
New "Generator.39" phases=1 bus1=39.1 kv=2.4018 model=1 kW=4.6655 kvar=3.0947
New "Generator.40" phases=1 bus1=40.1 kv=2.4018 model=1 kW=2.3335 kvar=1.5478
New "Generator.41" phases=1 bus1=41.1 kv=2.4018 model=1 kW=2.3335 kvar=1.5478
New "Generator.43" phases=1 bus1=43.1 kv=2.4018 model=1 kW=2.3335 kvar=1.5478
New "Generator.44" phases=1 bus1=44.1 kv=2.4018 model=1 kW=2.3335 kvar=1.5478
New "Generator.45" phases=1 bus1=45.1 kv=2.4018 model=1 kW=4.6655 kvar=3.0947
New "Generator.47" phases=1 bus1=47.1 kv=2.4018 model=1 kW=2.3335 kvar=1.5478
New "Generator.48" phases=1 bus1=48.1 kv=2.4018 model=1 kW=2.3335 kvar=1.5478
New "Generator.49" phases=1 bus1=49.1 kv=2.4018 model=1 kW=12.25 kvar=8.1257
New "Generator.50" phases=1 bus1=50.1 kv=2.4018 model=1 kW=24.5 kvar=16.2515
New "Generator.51" phases=1 bus1=51.1 kv=2.4018 model=1 kW=16.3345 kvar=10.8351
New "Generator.52" phases=1 bus1=52.1 kv=2.4018 model=1 kW=4.6655 kvar=3.0947
New "Generator.53" phases=1 bus1=53.1 kv=2.4018 model=1 kW=2.3335 kvar=1.5478
New "Generator.54" phases=1 bus1=54.1 kv=2.4018 model=1 kW=4.6655 kvar=3.0947
New "Generator.55" phases=1 bus1=55.1 kv=2.4018 model=1 kW=4.6655 kvar=3.0947
New "Generator.57" phases=1 bus1=57.1 kv=2.4018 model=1 kW=2.3335 kvar=1.5478
New "Generator.58" phases=1 bus1=58.1 kv=2.4018 model=1 kW=2.3335 kvar=1.5478
New "Generator.60" phases=1 bus1=60.1 kv=2.4018 model=1 kW=2.3335 kvar=1.5478
New "Generator.61" phases=1 bus1=61.1 kv=2.4018 model=1 kW=2.3335 kvar=1.5478
New "Generator.62" phases=1 bus1=62.1 kv=2.4018 model=1 kW=2.3335 kvar=1.5478
New "Generator.64" phases=1 bus1=64.1 kv=2.4018 model=1 kW=4.6655 kvar=3.0947
New "Generator.65" phases=1 bus1=65.1 kv=2.4018 model=1 kW=4.6655 kvar=3.0947
New "Generator.66" phases=1 bus1=66.1 kv=2.4018 model=1 kW=8.75 kvar=5.8041
New "Generator.67" phases=1 bus1=67.1 kv=2.4018 model=1 kW=16.3345 kvar=10.8351
New "Generator.68" phases=1 bus1=68.1 kv=2.4018 model=1 kW=8.75 kvar=5.8041
New "Generator.70" phases=1 bus1=70.1 kv=2.4018 model=1 kW=2.3335 kvar=1.5478
New "Generator.71" phases=1 bus1=71.1 kv=2.4018 model=1 kW=4.6655 kvar=3.0947
New "Generator.72" phases=1 bus1=72.1 kv=2.4018 model=1 kW=2.3335 kvar=1.5478
New "Generator.73" phases=1 bus1=73.1 kv=2.4018 model=1 kW=4.6655 kvar=3.0947
New "Generator.75" phases=1 bus1=75.1 kv=2.4018 model=1 kW=4.6655 kvar=3.0947
New "Generator.76" phases=1 bus1=76.1 kv=2.4018 model=1 kW=4.6655 kvar=3.0947
New "Generator.77" phases=1 bus1=77.1 kv=2.4018 model=1 kW=4.6655 kvar=3.0947
New "Generator.78" phases=1 bus1=78.1 kv=2.4018 model=1 kW=28.5845 kvar=-9.4638
New "Generator.79" phases=1 bus1=79.1 kv=2.4018 model=1 kW=4.6655 kvar=-3.0947
New "Generator.81" phases=1 bus1=81.1 kv=2.4018 model=1 kW=4.6655 kvar=-3.0947
New "Generator.82" phases=1 bus1=82.1 kv=2.4018 model=1 kW=4.6655 kvar=-3.0947
New "Generator.84" phases=1 bus1=84.1 kv=2.4018 model=1 kW=4.6655 kvar=-3.0947
New "Generator.85" phases=1 bus1=85.1 kv=2.4018 model=1 kW=2.3335 kvar=-1.5478
New "Generator.86" phases=1 bus1=86.1 kv=2.4018 model=1 kW=2.3335 kvar=-1.5478
New "Generator.87" phases=1 bus1=87.1 kv=2.4018 model=1 kW=4.6655 kvar=-3.0947
New "Generator.88" phases=1 bus1=88.1 kv=2.4018 model=1 kW=2.3335 kvar=-1.5478
New "Generator.89" phases=1 bus1=89.1 kv=2.4018 model=1 kW=4.6655 kvar=-3.0947
New "Generator.90" phases=1 bus1=90.1 kv=2.4018 model=1 kW=4.6655 kvar=-3.0947
New "Generator.92" phases=1 bus1=92.1 kv=2.4018 model=1 kW=4.6655 kvar=-3.0947
New "Generator.94" phases=1 bus1=94.1 kv=2.4018 model=1 kW=4.6655 kvar=-3.0947
New "Generator.96" phases=1 bus1=96.1 kv=2.4018 model=1 kW=4.6655 kvar=-3.0947
New "Generator.97" phases=1 bus1=97.1 kv=2.4018 model=1 kW=2.3335 kvar=-1.5478
New "Generator.98" phases=1 bus1=98.1 kv=2.4018 model=1 kW=2.3335 kvar=-1.5478
New "Generator.100" phases=1 bus1=100.1 kv=2.4018 model=1 kW=4.6655 kvar=3.0947
New "Generator.101" phases=1 bus1=101.1 kv=2.4018 model=1 kW=4.6655 kvar=3.0947
New "Generator.102" phases=1 bus1=102.1 kv=2.4018 model=1 kW=4.6655 kvar=3.0947
New "Generator.104" phases=1 bus1=104.1 kv=2.4018 model=1 kW=2.3335 kvar=1.5478
New "Generator.105" phases=1 bus1=105.1 kv=2.4018 model=1 kW=4.6655 kvar=3.0947
New "Generator.106" phases=1 bus1=106.1 kv=2.4018 model=1 kW=4.6655 kvar=3.0947
New "Generator.108" phases=1 bus1=108.1 kv=2.4018 model=1 kW=4.6655 kvar=3.0947
New "Generator.109" phases=1 bus1=109.1 kv=2.4018 model=1 kW=4.6655 kvar=3.0947
New "Generator.111" phases=1 bus1=111.1 kv=2.4018 model=1 kW=4.6655 kvar=3.0947
New "Generator.113" phases=1 bus1=113.1 kv=2.4018 model=1 kW=2.3335 kvar=1.5478
New "Generator.114" phases=1 bus1=114.1 kv=2.4018 model=1 kW=2.3335 kvar=1.5478
New "Generator.115" phases=1 bus1=115.1 kv=2.4018 model=1 kW=4.6655 kvar=3.0947
New "Generator.116" phases=1 bus1=116.1 kv=2.4018 model=1 kW=2.3335 kvar=1.5478
